[TITLE]


[JUNCTIONS]
;ID              	Elev        	Demand      	Pattern         
 JUNCTION-0      	376.07      	0.764       	PATTERN-0       	;				
 JUNCTION-1      	192.00      	0.000       	                	;				
 JUNCTION-2      	363.14      	0.830       	PATTERN-0       	;				
 JUNCTION-3      	428.07      	4.400       	PATTERN-0       	;				
 JUNCTION-4      	477.81      	3.836       	PATTERN-0       	;				
 JUNCTION-5      	494.23      	3.530       	PATTERN-0       	;				
 JUNCTION-6      	505.00      	1.850       	PATTERN-0       	;				
 JUNCTION-7      	535.23      	0.000       	                	;				
 JUNCTION-8      	493.42      	1.540       	PATTERN-0       	;				
 JUNCTION-9      	488.29      	0.000       	                	;				
 JUNCTION-10     	333.62      	0.341       	PATTERN-0       	;				
 JUNCTION-11     	344.10      	1.050       	PATTERN-0       	;				
 JUNCTION-12     	379.50      	0.025       	PATTERN-0       	;				
 JUNCTION-13     	325.95      	0.000       	                	;				
 JUNCTION-14     	416.85      	0.000       	                	;				
 JUNCTION-15     	423.49      	1.320       	PATTERN-0       	;				
 JUNCTION-16     	383.00      	0.000       	                	;				
 JUNCTION-17     	385.06      	25.716      	PATTERN-0       	;				
 JUNCTION-18     	478.15      	6.182       	PATTERN-0       	;				
 JUNCTION-19     	558.93      	4.604       	PATTERN-0       	;				
 JUNCTION-20     	617.73      	2.580       	PATTERN-0       	;				
 JUNCTION-21     	652.42      	0.000       	                	;				
 JUNCTION-22     	625.96      	4.290       	PATTERN-0       	;				
 JUNCTION-23     	604.34      	3.195       	PATTERN-0       	;				
 JUNCTION-24     	636.61      	0.000       	                	;				
 JUNCTION-25     	653.93      	5.970       	PATTERN-0       	;				
 JUNCTION-26     	683.43      	0.000       	                	;				
 JUNCTION-27     	690.65      	12.442      	PATTERN-0       	;				
 JUNCTION-28     	701.69      	2.093       	PATTERN-0       	;				
 JUNCTION-29     	846.28      	0.000       	                	;				
 JUNCTION-30     	636.00      	116.765     	PATTERN-0       	;				
 JUNCTION-31     	600.43      	2.370       	PATTERN-0       	;				
 JUNCTION-32     	625.85      	6.160       	PATTERN-0       	;				
 JUNCTION-33     	622.78      	0.958       	PATTERN-0       	;				
 JUNCTION-34     	200.00      	37.035      	PATTERN-0       	;				
 JUNCTION-35     	651.97      	9.240       	PATTERN-0       	;				
 JUNCTION-36     	634.11      	0.000       	                	;				
 JUNCTION-37     	677.05      	3.287       	PATTERN-0       	;				
 JUNCTION-38     	646.51      	0.000       	                	;				
 JUNCTION-39     	703.19      	4.907       	PATTERN-0       	;				
 JUNCTION-40     	741.63      	3.394       	PATTERN-0       	;				
 JUNCTION-41     	700.22      	3.053       	PATTERN-0       	;				
 JUNCTION-42     	728.05      	11.414      	PATTERN-0       	;				
 JUNCTION-43     	653.09      	3.310       	PATTERN-0       	;				
 JUNCTION-44     	678.50      	5.167       	PATTERN-0       	;				
 JUNCTION-45     	747.32      	9.355       	PATTERN-0       	;				
 JUNCTION-46     	820.24      	4.365       	PATTERN-0       	;				
 JUNCTION-47     	640.47      	0.000       	                	;				
 JUNCTION-48     	637.45      	0.000       	                	;				
 JUNCTION-49     	623.90      	1.140       	PATTERN-0       	;				
 JUNCTION-50     	611.08      	3.812       	PATTERN-0       	;				
 JUNCTION-51     	623.68      	3.010       	PATTERN-0       	;				
 JUNCTION-52     	613.27      	4.918       	PATTERN-0       	;				
 JUNCTION-53     	607.63      	3.030       	PATTERN-0       	;				
 JUNCTION-54     	602.11      	4.190       	PATTERN-0       	;				
 JUNCTION-55     	603.34      	3.080       	PATTERN-0       	;				
 JUNCTION-56     	606.94      	0.000       	                	;				
 JUNCTION-57     	617.97      	0.432       	PATTERN-0       	;				
 JUNCTION-58     	610.21      	22.020      	PATTERN-0       	;				
 JUNCTION-59     	620.95      	0.000       	                	;				
 JUNCTION-60     	623.99      	0.000       	                	;				
 JUNCTION-61     	625.38      	0.000       	                	;				
 JUNCTION-62     	625.40      	0.000       	                	;				
 JUNCTION-63     	623.95      	0.000       	                	;				
 JUNCTION-64     	623.13      	0.000       	                	;				
 JUNCTION-65     	619.37      	0.000       	                	;				
 JUNCTION-66     	619.72      	0.000       	                	;				
 JUNCTION-67     	624.50      	0.000       	                	;				
 JUNCTION-68     	617.08      	20.900      	PATTERN-0       	;				
 JUNCTION-69     	626.00      	2.460       	PATTERN-0       	;				
 JUNCTION-70     	619.11      	6.250       	PATTERN-0       	;				
 JUNCTION-71     	632.18      	2.030       	PATTERN-0       	;				
 JUNCTION-72     	622.35      	2.793       	PATTERN-0       	;				
 JUNCTION-73     	620.37      	2.630       	PATTERN-0       	;				
 JUNCTION-74     	622.34      	1.070       	PATTERN-0       	;				
 JUNCTION-75     	629.16      	2.547       	PATTERN-0       	;				
 JUNCTION-76     	622.55      	2.670       	PATTERN-0       	;				
 JUNCTION-77     	624.64      	1.820       	PATTERN-0       	;				
 JUNCTION-78     	618.02      	0.000       	                	;				
 JUNCTION-79     	617.89      	0.000       	                	;				
 JUNCTION-80     	616.89      	0.000       	                	;				
 JUNCTION-81     	623.58      	3.460       	PATTERN-0       	;				
 JUNCTION-82     	618.76      	10.220      	PATTERN-0       	;				
 JUNCTION-83     	617.71      	7.541       	PATTERN-0       	;				
 JUNCTION-84     	619.93      	2.879       	PATTERN-0       	;				
 JUNCTION-85     	620.25      	0.000       	                	;				
 JUNCTION-86     	623.48      	0.000       	                	;				
 JUNCTION-87     	622.26      	0.000       	                	;				
 JUNCTION-88     	621.69      	0.000       	                	;				
 JUNCTION-89     	626.81      	7.340       	PATTERN-0       	;				
 JUNCTION-90     	644.09      	0.000       	                	;				
 JUNCTION-91     	637.44      	0.000       	                	;				
 JUNCTION-92     	628.24      	0.000       	                	;				
 JUNCTION-93     	643.74      	13.990      	PATTERN-0       	;				
 JUNCTION-94     	633.48      	2.130       	PATTERN-0       	;				
 JUNCTION-95     	630.86      	2.970       	PATTERN-0       	;				
 JUNCTION-96     	629.14      	6.100       	PATTERN-0       	;				
 JUNCTION-97     	628.99      	4.450       	PATTERN-0       	;				
 JUNCTION-98     	643.05      	5.967       	PATTERN-0       	;				
 JUNCTION-99     	641.89      	7.173       	PATTERN-0       	;				
 JUNCTION-100    	637.90      	5.888       	PATTERN-0       	;				
 JUNCTION-101    	645.09      	0.662       	PATTERN-0       	;				
 JUNCTION-102    	1094.07     	102.100     	PATTERN-0       	;				
 JUNCTION-103    	1031.73     	0.756       	PATTERN-1       	;				
 JUNCTION-104    	860.64      	0.044       	PATTERN-1       	;				
 JUNCTION-105    	0.00        	0.000       	                	;				
 JUNCTION-106    	0.00        	0.000       	                	;				
 JUNCTION-107    	0.00        	0.000       	                	;				
 JUNCTION-108    	0.00        	0.000       	                	;				
 JUNCTION-109    	0.00        	0.000       	                	;				
 JUNCTION-110    	0.00        	0.000       	                	;				
 JUNCTION-111    	418.00      	0.000       	                	;				
 JUNCTION-112    	418.00      	0.000       	                	;				
 JUNCTION-113    	359.00      	0.000       	                	;				
 JUNCTION-114    	359.00      	0.313       	PATTERN-0       	;				
 JUNCTION-115    	533.00      	0.000       	                	;				
 JUNCTION-116    	533.00      	4.568       	PATTERN-0       	;				
 JUNCTION-117    	404.00      	49.284      	PATTERN-0       	;				
 JUNCTION-118    	404.00      	105.366     	PATTERN-0       	;				
 JUNCTION-119    	849.00      	0.000       	                	;				
 JUNCTION-120    	849.00      	0.000       	                	;				
 JUNCTION-121    	957.00      	0.000       	                	;				
 JUNCTION-122    	957.00      	1.447       	PATTERN-0       	;				
 JUNCTION-123    	758.00      	3.243       	PATTERN-0       	;				
 JUNCTION-124    	758.00      	1.015       	PATTERN-0       	;				
 JUNCTION-125    	434.00      	0.000       	                	;				
 JUNCTION-126    	434.00      	197.664     	PATTERN-0       	;				

[RESERVOIRS]
;ID              	Head        	Pattern         
 RESERVOIR-129   	425         	                	;					

[TANKS]
;ID              	Elevation   	InitLevel   	MinLevel    	MaxLevel    	Diameter    	MinVol      	VolCurve
 TANK-130        	843.9       	11.159      	0           	32.1        	186         	0           	                	;
 TANK-131        	1137.1      	17.945      	0           	41.9        	106         	0           	                	;

[PIPES]
;ID              	Node1           	Node2           	Length      	Diameter    	Roughness   	MinorLoss   	Status
 LINK-0          	JUNCTION-118    	JUNCTION-126    	7401        	20.45       	138         	0           	Open  	;
 LINK-1          	JUNCTION-17     	JUNCTION-0      	359         	8.00        	139         	0           	Open  	;
 LINK-2          	JUNCTION-0      	JUNCTION-2      	324         	8.00        	139         	0           	Open  	;
 LINK-3          	JUNCTION-3      	JUNCTION-4      	697         	8.00        	139         	0           	Open  	;
 LINK-4          	JUNCTION-1      	JUNCTION-107    	152         	16.00       	138         	1500        	Open  	;
 LINK-5          	JUNCTION-108    	JUNCTION-34     	165         	12.00       	138         	0           	Open  	;
 LINK-6          	JUNCTION-5      	JUNCTION-4      	574         	8.00        	139         	0           	Open  	;
 LINK-7          	JUNCTION-5      	JUNCTION-6      	238         	8.00        	139         	0           	Open  	;
 LINK-8          	JUNCTION-6      	JUNCTION-7      	502         	8.00        	139         	0           	Open  	;
 LINK-9          	JUNCTION-8      	JUNCTION-6      	396         	8.00        	139         	0           	Open  	;
 LINK-10         	JUNCTION-9      	JUNCTION-8      	377         	8.00        	139         	0           	Open  	;
 LINK-11         	JUNCTION-18     	JUNCTION-9      	308         	8.00        	139         	0           	Open  	;
 LINK-12         	JUNCTION-9      	JUNCTION-8      	837         	8.00        	139         	0           	Open  	;
 LINK-13         	JUNCTION-2      	JUNCTION-113    	56          	8.00        	138         	0           	Open  	;
 LINK-14         	JUNCTION-114    	JUNCTION-10     	599         	8.00        	138         	0           	Open  	;
 LINK-15         	JUNCTION-1      	JUNCTION-109    	125         	16.00       	138         	0           	Open  	;
 LINK-16         	JUNCTION-10     	JUNCTION-11     	409         	8.00        	138         	0           	Open  	;
 LINK-17         	JUNCTION-110    	JUNCTION-34     	124         	12.00       	138         	0           	Open  	;
 LINK-20         	JUNCTION-12     	JUNCTION-13     	597         	8.00        	140         	0           	Open  	;
 LINK-21         	JUNCTION-12     	JUNCTION-11     	671         	8.00        	138         	0           	Open  	;
 LINK-22         	JUNCTION-14     	JUNCTION-12     	332         	8.00        	139         	0           	Open  	;
 LINK-23         	JUNCTION-5      	JUNCTION-15     	2089        	8.00        	139         	0           	Open  	;
 LINK-24         	JUNCTION-15     	JUNCTION-3      	50          	8.00        	139         	0           	Open  	;
 LINK-25         	JUNCTION-15     	JUNCTION-111    	57          	8.00        	140         	0           	Open  	;
 LINK-26         	JUNCTION-112    	JUNCTION-14     	69          	8.00        	140         	0           	Open  	;
 LINK-27         	JUNCTION-14     	JUNCTION-16     	928         	8.00        	140         	0           	Open  	;
 LINK-28         	JUNCTION-17     	JUNCTION-18     	1382        	16.00       	138         	0           	Open  	;
 LINK-29         	JUNCTION-18     	JUNCTION-116    	731         	16.00       	138         	0           	Open  	;
 LINK-30         	JUNCTION-0      	JUNCTION-4      	1570        	8.00        	139         	0           	Open  	;
 LINK-31         	JUNCTION-29     	JUNCTION-28     	1402        	24.00       	138         	0           	Open  	;
 LINK-32         	JUNCTION-45     	JUNCTION-46     	1811        	8.00        	140         	0           	Open  	;
 LINK-33         	JUNCTION-23     	JUNCTION-124    	1845        	12.00       	140         	0           	Open  	;
 LINK-34         	JUNCTION-122    	JUNCTION-123    	2433        	12.00       	140         	0           	Open  	;
 LINK-35         	JUNCTION-34     	JUNCTION-30     	10260       	24.00       	138         	0           	Open  	;
 LINK-36         	JUNCTION-41     	JUNCTION-39     	1066        	8.00        	138         	0           	Open  	;
 LINK-37         	JUNCTION-2      	JUNCTION-3      	1066        	8.00        	139         	0           	Open  	;
 LINK-38         	JUNCTION-11     	JUNCTION-10     	1000        	8.00        	138         	0           	Open  	;
 LINK-39         	JUNCTION-117    	JUNCTION-17     	1537        	16.00       	138         	0           	Open  	;
 LINK-40         	JUNCTION-20     	JUNCTION-21     	2125        	20.00       	138         	0           	Open  	;
 LINK-41         	JUNCTION-20     	JUNCTION-115    	3227        	16.00       	138         	0           	Open  	;
 LINK-42         	JUNCTION-19     	JUNCTION-125    	2125        	20.00       	138         	0           	Open  	;
 LINK-43         	JUNCTION-19     	JUNCTION-20     	942         	20.00       	138         	0           	Open  	;
 LINK-44         	JUNCTION-21     	JUNCTION-22     	1257        	20.00       	138         	0           	Open  	;
 LINK-45         	JUNCTION-22     	JUNCTION-23     	1101        	24.00       	138         	0           	Open  	;
 LINK-46         	JUNCTION-23     	JUNCTION-30     	1175        	24.00       	138         	0           	Open  	;
 LINK-47         	JUNCTION-22     	JUNCTION-24     	292         	24.00       	138         	0           	Open  	;
 LINK-48         	JUNCTION-24     	JUNCTION-25     	178         	24.00       	138         	0           	Open  	;
 LINK-49         	JUNCTION-25     	JUNCTION-26     	336         	24.00       	138         	0           	Open  	;
 LINK-50         	JUNCTION-26     	JUNCTION-27     	76          	24.00       	138         	0           	Open  	;
 LINK-51         	JUNCTION-27     	JUNCTION-28     	144         	24.00       	138         	0           	Open  	;
 LINK-52         	JUNCTION-30     	JUNCTION-31     	1146        	12.00       	138         	0           	Open  	;
 LINK-53         	JUNCTION-31     	JUNCTION-32     	1699        	12.00       	138         	0           	Open  	;
 LINK-54         	JUNCTION-32     	JUNCTION-33     	645         	12.00       	138         	0           	Open  	;
 LINK-55         	JUNCTION-33     	JUNCTION-57     	754         	8.41        	138         	0           	Open  	;
 LINK-56         	JUNCTION-19     	JUNCTION-35     	1113        	8.00        	140         	0           	Open  	;
 LINK-57         	JUNCTION-35     	JUNCTION-36     	507         	8.00        	140         	0           	Open  	;
 LINK-58         	JUNCTION-35     	JUNCTION-37     	246         	8.00        	140         	0           	Open  	;
 LINK-59         	JUNCTION-37     	JUNCTION-20     	739         	8.00        	138         	0           	Open  	;
 LINK-60         	JUNCTION-35     	JUNCTION-38     	552         	8.00        	140         	0           	Open  	;
 LINK-61         	JUNCTION-37     	JUNCTION-39     	348         	8.00        	138         	0           	Open  	;
 LINK-62         	JUNCTION-39     	JUNCTION-40     	998         	8.30        	139         	0           	Open  	;
 LINK-63         	JUNCTION-40     	JUNCTION-41     	619         	8.00        	138         	0           	Open  	;
 LINK-64         	JUNCTION-40     	JUNCTION-42     	538         	8.00        	138         	0           	Open  	;
 LINK-65         	JUNCTION-42     	JUNCTION-41     	668         	8.00        	138         	0           	Open  	;
 LINK-66         	JUNCTION-42     	JUNCTION-27     	2581        	8.02        	138         	0           	Open  	;
 LINK-67         	JUNCTION-24     	JUNCTION-43     	544         	8.00        	140         	0           	Open  	;
 LINK-68         	JUNCTION-43     	JUNCTION-25     	420         	8.00        	140         	0           	Open  	;
 LINK-69         	JUNCTION-43     	JUNCTION-44     	373         	8.00        	140         	0           	Open  	;
 LINK-70         	JUNCTION-44     	JUNCTION-26     	556         	8.00        	140         	0           	Open  	;
 LINK-71         	JUNCTION-44     	JUNCTION-28     	752         	8.00        	140         	0           	Open  	;
 LINK-72         	JUNCTION-29     	TANK-130        	242         	24.00       	138         	0           	Open  	;
 LINK-73         	JUNCTION-21     	JUNCTION-47     	91          	8.00        	139         	0           	Open  	;
 LINK-74         	JUNCTION-47     	JUNCTION-48     	805         	8.00        	139         	0           	Open  	;
 LINK-75         	JUNCTION-48     	JUNCTION-49     	574         	8.00        	139         	0           	Open  	;
 LINK-76         	JUNCTION-49     	JUNCTION-22     	158         	8.00        	139         	0           	Open  	;
 LINK-77         	JUNCTION-49     	JUNCTION-50     	577         	8.00        	139         	0           	Open  	;
 LINK-78         	JUNCTION-50     	JUNCTION-51     	388         	8.00        	139         	0           	Open  	;
 LINK-79         	JUNCTION-51     	JUNCTION-48     	236         	8.00        	139         	0           	Open  	;
 LINK-80         	JUNCTION-51     	JUNCTION-52     	393         	8.00        	139         	0           	Open  	;
 LINK-81         	JUNCTION-52     	JUNCTION-47     	549         	8.00        	139         	0           	Open  	;
 LINK-82         	JUNCTION-52     	JUNCTION-50     	1381        	8.00        	139         	0           	Open  	;
 LINK-83         	JUNCTION-23     	JUNCTION-53     	919         	10.00       	139         	0           	Open  	;
 LINK-84         	JUNCTION-53     	JUNCTION-54     	386         	10.00       	139         	0           	Open  	;
 LINK-85         	JUNCTION-54     	JUNCTION-31     	229         	10.00       	139         	0           	Open  	;
 LINK-86         	JUNCTION-53     	JUNCTION-56     	232         	8.00        	140         	0           	Open  	;
 LINK-87         	JUNCTION-56     	JUNCTION-55     	390         	8.00        	140         	0           	Open  	;
 LINK-88         	JUNCTION-55     	JUNCTION-54     	254         	8.00        	140         	0           	Open  	;
 LINK-89         	JUNCTION-55     	JUNCTION-56     	873         	8.00        	140         	0           	Open  	;
 LINK-90         	JUNCTION-32     	JUNCTION-57     	945         	8.00        	140         	0           	Open  	;
 LINK-91         	JUNCTION-57     	JUNCTION-33     	230         	8.00        	140         	0           	Open  	;
 LINK-92         	JUNCTION-31     	JUNCTION-58     	1155        	10.00       	139         	0           	Open  	;
 LINK-93         	JUNCTION-58     	JUNCTION-59     	413         	8.00        	140         	0           	Open  	;
 LINK-94         	JUNCTION-59     	JUNCTION-60     	943         	8.00        	140         	0           	Open  	;
 LINK-95         	JUNCTION-60     	JUNCTION-59     	196         	8.00        	140         	0           	Open  	;
 LINK-96         	JUNCTION-60     	JUNCTION-61     	133         	8.00        	140         	0           	Open  	;
 LINK-97         	JUNCTION-61     	JUNCTION-62     	138         	8.00        	140         	0           	Open  	;
 LINK-98         	JUNCTION-62     	JUNCTION-63     	187         	8.00        	140         	0           	Open  	;
 LINK-99         	JUNCTION-63     	JUNCTION-64     	134         	8.00        	139         	0           	Open  	;
 LINK-100        	JUNCTION-64     	JUNCTION-65     	300         	8.00        	139         	0           	Open  	;
 LINK-101        	JUNCTION-65     	JUNCTION-66     	65          	8.00        	139         	0           	Open  	;
 LINK-102        	JUNCTION-66     	JUNCTION-67     	420         	8.00        	139         	0           	Open  	;
 LINK-103        	JUNCTION-67     	JUNCTION-61     	209         	8.00        	139         	0           	Open  	;
 LINK-104        	JUNCTION-66     	JUNCTION-67     	398         	8.00        	139         	0           	Open  	;
 LINK-105        	JUNCTION-68     	JUNCTION-58     	381         	10.00       	139         	0           	Open  	;
 LINK-106        	JUNCTION-64     	JUNCTION-65     	872         	8.00        	140         	0           	Open  	;
 LINK-107        	JUNCTION-65     	JUNCTION-68     	199         	8.00        	140         	0           	Open  	;
 LINK-108        	JUNCTION-63     	JUNCTION-62     	713         	8.00        	140         	0           	Open  	;
 LINK-109        	JUNCTION-68     	JUNCTION-69     	1095        	10.00       	139         	0           	Open  	;
 LINK-110        	JUNCTION-69     	JUNCTION-70     	231         	8.00        	140         	0           	Open  	;
 LINK-111        	JUNCTION-70     	JUNCTION-71     	695         	8.00        	140         	0           	Open  	;
 LINK-112        	JUNCTION-70     	JUNCTION-72     	528         	8.00        	140         	0           	Open  	;
 LINK-113        	JUNCTION-73     	JUNCTION-69     	938         	10.00       	139         	0           	Open  	;
 LINK-114        	JUNCTION-72     	JUNCTION-74     	169         	8.00        	140         	0           	Open  	;
 LINK-115        	JUNCTION-74     	JUNCTION-73     	127         	8.00        	140         	0           	Open  	;
 LINK-116        	JUNCTION-72     	JUNCTION-75     	928         	8.00        	139         	0           	Open  	;
 LINK-117        	JUNCTION-75     	JUNCTION-74     	336         	8.00        	139         	0           	Open  	;
 LINK-118        	JUNCTION-75     	JUNCTION-76     	772         	8.00        	139         	0           	Open  	;
 LINK-119        	JUNCTION-76     	JUNCTION-77     	417         	8.00        	139         	0           	Open  	;
 LINK-120        	JUNCTION-77     	JUNCTION-73     	655         	10.00       	139         	0           	Open  	;
 LINK-121        	JUNCTION-76     	JUNCTION-78     	167         	8.00        	139         	0           	Open  	;
 LINK-122        	JUNCTION-78     	JUNCTION-79     	169         	8.00        	139         	0           	Open  	;
 LINK-123        	JUNCTION-79     	JUNCTION-80     	195         	10.00       	139         	0           	Open  	;
 LINK-124        	JUNCTION-80     	JUNCTION-81     	333         	10.00       	139         	0           	Open  	;
 LINK-125        	JUNCTION-81     	JUNCTION-77     	60          	10.00       	139         	0           	Open  	;
 LINK-126        	JUNCTION-78     	JUNCTION-71     	895         	8.00        	139         	0           	Open  	;
 LINK-127        	JUNCTION-80     	JUNCTION-82     	372         	8.00        	139         	0           	Open  	;
 LINK-128        	JUNCTION-82     	JUNCTION-83     	205         	8.00        	139         	0           	Open  	;
 LINK-129        	JUNCTION-83     	JUNCTION-84     	430         	8.00        	139         	0           	Open  	;
 LINK-130        	JUNCTION-84     	JUNCTION-81     	152         	8.00        	139         	0           	Open  	;
 LINK-131        	JUNCTION-84     	JUNCTION-83     	1586        	8.00        	139         	0           	Open  	;
 LINK-132        	JUNCTION-82     	JUNCTION-85     	174         	8.00        	139         	0           	Open  	;
 LINK-133        	JUNCTION-85     	JUNCTION-86     	456         	8.00        	139         	0           	Open  	;
 LINK-134        	JUNCTION-86     	JUNCTION-87     	341         	8.00        	139         	0           	Open  	;
 LINK-135        	JUNCTION-87     	JUNCTION-85     	507         	8.00        	139         	0           	Open  	;
 LINK-136        	JUNCTION-87     	JUNCTION-88     	195         	8.00        	139         	0           	Open  	;
 LINK-137        	JUNCTION-88     	JUNCTION-79     	250         	10.00       	139         	0           	Open  	;
 LINK-138        	JUNCTION-88     	JUNCTION-89     	191         	10.00       	139         	0           	Open  	;
 LINK-139        	JUNCTION-89     	JUNCTION-86     	926         	8.00        	140         	0           	Open  	;
 LINK-140        	JUNCTION-89     	JUNCTION-90     	464         	10.00       	139         	0           	Open  	;
 LINK-141        	JUNCTION-90     	JUNCTION-91     	178         	10.00       	139         	0           	Open  	;
 LINK-142        	JUNCTION-91     	JUNCTION-92     	167         	10.00       	139         	0           	Open  	;
 LINK-143        	JUNCTION-92     	JUNCTION-33     	403         	10.00       	139         	0           	Open  	;
 LINK-144        	JUNCTION-90     	JUNCTION-93     	143         	8.00        	139         	0           	Open  	;
 LINK-145        	JUNCTION-93     	JUNCTION-94     	331         	8.00        	139         	0           	Open  	;
 LINK-146        	JUNCTION-94     	JUNCTION-92     	157         	8.00        	139         	0           	Open  	;
 LINK-147        	JUNCTION-93     	JUNCTION-94     	1805        	8.00        	139         	0           	Open  	;
 LINK-148        	JUNCTION-92     	JUNCTION-95     	177         	8.00        	139         	0           	Open  	;
 LINK-149        	JUNCTION-95     	JUNCTION-96     	332         	8.00        	139         	0           	Open  	;
 LINK-150        	JUNCTION-96     	JUNCTION-95     	1432        	8.00        	139         	0           	Open  	;
 LINK-151        	JUNCTION-91     	JUNCTION-97     	489         	8.00        	139         	0           	Open  	;
 LINK-152        	JUNCTION-97     	JUNCTION-96     	122         	8.00        	139         	0           	Open  	;
 LINK-153        	JUNCTION-97     	JUNCTION-98     	285         	8.00        	139         	0           	Open  	;
 LINK-154        	JUNCTION-98     	JUNCTION-99     	597         	8.00        	139         	0           	Open  	;
 LINK-155        	JUNCTION-99     	JUNCTION-100    	148         	8.00        	139         	0           	Open  	;
 LINK-156        	JUNCTION-100    	JUNCTION-101    	812         	8.00        	139         	0           	Open  	;
 LINK-157        	JUNCTION-101    	JUNCTION-98     	152         	8.00        	139         	0           	Open  	;
 LINK-158        	JUNCTION-100    	JUNCTION-101    	620         	8.00        	139         	0           	Open  	;
 LINK-159        	JUNCTION-98     	JUNCTION-99     	784         	8.00        	139         	0           	Open  	;
 LINK-160        	JUNCTION-97     	JUNCTION-71     	1214        	8.00        	139         	0           	Open  	;
 LINK-161        	JUNCTION-45     	JUNCTION-46     	718         	10.00       	138         	0           	Open  	;
 LINK-162        	JUNCTION-46     	JUNCTION-120    	315         	10.00       	138         	0           	Open  	;
 LINK-163        	JUNCTION-119    	JUNCTION-104    	76          	10.00       	138         	0           	Open  	;
 LINK-164        	JUNCTION-103    	JUNCTION-102    	930         	12.00       	140         	0           	Open  	;
 LINK-165        	JUNCTION-102    	TANK-131        	559         	16.00       	140         	0           	Open  	;
 LINK-166        	JUNCTION-29     	JUNCTION-105    	169         	11.97       	140         	800         	Open  	;
 LINK-167        	JUNCTION-106    	JUNCTION-104    	84          	8.00        	138         	0           	Open  	;
 LINK-168        	JUNCTION-103    	JUNCTION-121    	291         	12.00       	140         	0           	Open  	;
 LINK-169        	JUNCTION-103    	JUNCTION-104    	4700        	10.12       	138         	0           	Open  	;
 1               	JUNCTION-1      	RESERVOIR-129   	350         	30.00       	138         	0           	Open  	;

[PUMPS]
;ID              	Node1           	Node2           	Parameters
 PUMP-170        	JUNCTION-105    	JUNCTION-106    	HEAD CURVE-0	;				
 PUMP-171        	JUNCTION-107    	JUNCTION-108    	HEAD CURVE-1	;				
 PUMP-172        	JUNCTION-109    	JUNCTION-110    	HEAD CURVE-2	;				

[VALVES]
;ID              	Node1           	Node2           	Diameter    	Type	Setting     	MinorLoss   
 VALVE-173       	JUNCTION-111    	JUNCTION-112    	6           	PRV 	70          	0           	;	
 VALVE-174       	JUNCTION-113    	JUNCTION-114    	6           	PRV 	80          	0           	;	
 VALVE-175       	JUNCTION-115    	JUNCTION-116    	10          	PRV 	55          	0           	;	
 VALVE-176       	JUNCTION-117    	JUNCTION-118    	6           	PRV 	29.8        	0           	;	
 VALVE-177       	JUNCTION-119    	JUNCTION-120    	6           	PRV 	45          	0           	;	
 VALVE-178       	JUNCTION-121    	JUNCTION-122    	6           	PRV 	37          	0           	;	
 VALVE-179       	JUNCTION-123    	JUNCTION-124    	8           	PRV 	40          	0           	;	
 VALVE-180       	JUNCTION-125    	JUNCTION-126    	8           	PRV 	16.5        	0           	;	

[TAGS]

[DEMANDS]
;Junction        	Demand      	Pattern         	Category
 JUNCTION-45     	9.355       	PATTERN-0       	;   					  
 JUNCTION-45     	0.200       	PATTERN-1       	;   					  
 JUNCTION-122    	1.447       	PATTERN-0       	;   					  
 JUNCTION-122    	0.077       	PATTERN-1       	;   					  
 JUNCTION-123    	3.243       	PATTERN-0       	;   					  
 JUNCTION-123    	0.923       	PATTERN-1       	;   					  

[STATUS]
;ID              	Status/Setting

[PATTERNS]
;ID              	Multipliers
;								